6

O   3.63802      1.57110      1.76000
O  26.36198      1.57110      1.76000
H   3.95828      2.55412      1.74392
H   2.63613      1.66728      1.76493
H  26.09174      0.99418      2.56104
H  26.09550      0.99080      0.96072
6
Properties=species:S:1:pos:R:3:forces:R:3 energy=-4125.147092675354 pbc="F F F"
O        3.41080999       1.93083334       1.75628333      -0.00000016      -0.00000007       0.00000000
O       26.18307333       1.18536000       1.76058667      -0.00000000      -0.00000001       0.00000011
H        4.06332478       2.56639260       1.74308324       0.00000020       0.00000016      -0.00000000
H        2.75829523       1.29527406       1.76948342      -0.00000005      -0.00000009       0.00000000
H       26.15474262       1.13079964       2.66949034      -0.00000000      -0.00000000       0.00000003
H       26.21140405       1.23992036       0.85168299       0.00000000       0.00000001      -0.00000014
6
Properties=species:S:1:pos:R:3:forces:R:3 energy=-4124.099167555964 pbc="F F F"
O        3.41080999       1.93083335       1.75628333      -0.00000015      -0.00000000       0.00000000
O       26.18307333       1.18536000       1.76058667      -0.00000003      -0.00000001       0.00000014
H        4.10300024       2.60503710       1.74228062      -0.00000014      -0.00000021       0.00000000
H        2.71861977       1.25662956       1.77028604       0.00000029       0.00000021      -0.00000000
H       26.15302000       1.12748215       2.72475528       0.00000001      -0.00000001       0.00000018
H       26.21312667       1.24323785       0.79641805       0.00000002       0.00000002      -0.00000032
6
Properties=species:S:1:pos:R:3:forces:R:3 energy=-4124.25682874525 pbc="F F F"
O        3.41080998       1.93083336       1.75628333      -0.00000034       0.00000033       0.00000000
O       26.18307333       1.18536000       1.76058667      -0.00000009       0.00000001      -0.00000002
H        4.08534021       2.58783596       1.74263787       0.00000013      -0.00000020       0.00000000
H        2.73627981       1.27383070       1.76992879       0.00000021      -0.00000013      -0.00000000
H       26.15378676       1.12895880       2.70015617       0.00000005       0.00000000      -0.00000012
H       26.21235991       1.24176120       0.82101716       0.00000004      -0.00000001       0.00000014
6
Properties=species:S:1:pos:R:3:forces:R:3 energy=-4124.320354199977 pbc="F F F"
O        3.41080998       1.93083336       1.75628333      -0.00000026       0.00000027      -0.00000000
O       26.18307333       1.18536000       1.76058667      -0.00000004       0.00000000      -0.00000001
H        4.08594335       2.58842342       1.74262567       0.00000008      -0.00000018       0.00000000
H        2.73567668       1.27324324       1.76994099       0.00000017      -0.00000009      -0.00000000
H       26.15376057       1.12890837       2.70099629       0.00000002       0.00000000      -0.00000007
H       26.21238610       1.24181163       0.82017705       0.00000002      -0.00000001       0.00000007
6
Properties=species:S:1:pos:R:3:forces:R:3 energy=-4124.352527536148 pbc="F F F"
O        3.41080998       1.93083336       1.75628333      -0.00000015       0.00000002       0.00000000
O       26.18307333       1.18536000       1.76058667      -0.00000001      -0.00000000       0.00000000
H        4.08598595       2.58846491       1.74262481       0.00000005      -0.00000004      -0.00000000
H        2.73563408       1.27320174       1.76994185       0.00000010       0.00000001      -0.00000000
H       26.15375872       1.12890481       2.70105563       0.00000001       0.00000000      -0.00000004
H       26.21238795       1.24181519       0.82011771       0.00000001      -0.00000000       0.00000004
6
Properties=species:S:1:pos:R:3:forces:R:3 energy=-4124.371838578677 pbc="F F F"
O        3.41080998       1.93083336       1.75628333       0.00000033       0.00000033      -0.00000001
O       26.18307333       1.18536000       1.76058667       0.00000000       0.00000001      -0.00000011
H        4.08600110       2.58847967       1.74262450      -0.00000029      -0.00000029       0.00000001
H        2.73561893       1.27318698       1.76994216      -0.00000003      -0.00000004       0.00000000
H       26.15375806       1.12890354       2.70107673       0.00000000       0.00000001      -0.00000012
H       26.21238861       1.24181646       0.82009661      -0.00000001      -0.00000001       0.00000024
6
Properties=species:S:1:pos:R:3:forces:R:3 energy=-4124.385058219192 pbc="F F F"
O        3.41080998       1.93083336       1.75628333       0.00000038       0.00000022      -0.00000001
O       26.18307333       1.18536000       1.76058667       0.00000001       0.00000001      -0.00000010
H        4.08601804       2.58849617       1.74262416      -0.00000035      -0.00000027       0.00000001
H        2.73560199       1.27317048       1.76994250      -0.00000003       0.00000004      -0.00000000
H       26.15375732       1.12890212       2.70110033       0.00000000       0.00000001      -0.00000017
H       26.21238935       1.24181788       0.82007301      -0.00000001      -0.00000002       0.00000027
6
Properties=species:S:1:pos:R:3:forces:R:3 energy=-4124.39419614476 pbc="F F F"
O        3.41080999       1.93083336       1.75628333      -0.00000006       0.00000092      -0.00000001
O       26.18307333       1.18536000       1.76058667      -0.00000007       0.00000001      -0.00000015
H        4.08602212       2.58850015       1.74262408       0.00000002      -0.00000047       0.00000000
H        2.73559790       1.27316650       1.76994258       0.00000004      -0.00000045       0.00000000
H       26.15375714       1.12890178       2.70110602       0.00000003      -0.00000000       0.00000006
H       26.21238953       1.24181822       0.82006732       0.00000003      -0.00000001       0.00000008
6
Properties=species:S:1:pos:R:3:forces:R:3 energy=-4124.401061367233 pbc="F F F"
O        3.41080999       1.93083335       1.75628333      -0.00000039       0.00000045       0.00000000
O       26.18307333       1.18536000       1.76058667      -0.00000008       0.00000000      -0.00000000
H        4.08602318       2.58850118       1.74262406       0.00000019      -0.00000023      -0.00000000
H        2.73559685       1.27316548       1.76994260       0.00000019      -0.00000023      -0.00000000
H       26.15375709       1.12890169       2.70110749       0.00000004      -0.00000000       0.00000000
H       26.21238958       1.24181831       0.82006585       0.00000004       0.00000000      -0.00000000
6
Properties=species:S:1:pos:R:3:forces:R:3 energy=-4124.408328992209 pbc="F F F"
O        3.41080999       1.93083335       1.75628333      -0.00000023       0.00000018      -0.00000000
O       26.18307333       1.18536000       1.76058667      -0.00000005       0.00000000      -0.00000000
H        4.08602446       2.58850243       1.74262403       0.00000011      -0.00000009       0.00000000
H        2.73559557       1.27316423       1.76994263       0.00000011      -0.00000009       0.00000000
H       26.15375703       1.12890158       2.70110928       0.00000002      -0.00000000       0.00000000
H       26.21238964       1.24181842       0.82006406       0.00000002       0.00000000      -0.00000000
6
Properties=species:S:1:pos:R:3:forces:R:3 energy=-4124.41095691247 pbc="F F F"
O        3.41080999       1.93083335       1.75628333      -0.00000030       0.00000024      -0.00000000
O       26.18307333       1.18536000       1.76058667      -0.00000006       0.00000000      -0.00000000
H        4.08602249       2.58850051       1.74262407       0.00000015      -0.00000012       0.00000000
H        2.73559754       1.27316615       1.76994259       0.00000015      -0.00000012       0.00000000
H       26.15375712       1.12890175       2.70110653       0.00000003       0.00000000      -0.00000000
H       26.21238955       1.24181825       0.82006681       0.00000003      -0.00000000       0.00000000
6
Properties=species:S:1:pos:R:3:forces:R:3 energy=-4124.4140745420045 pbc="F F F"
O        3.41080999       1.93083335       1.75628333      -0.00000041       0.00000031       0.00000000
O       26.18307333       1.18536000       1.76058667      -0.00000008      -0.00000000       0.00000000
H        4.08602780       2.58850568       1.74262396       0.00000020      -0.00000015      -0.00000000
H        2.73559223       1.27316098       1.76994270       0.00000020      -0.00000016      -0.00000000
H       26.15375689       1.12890131       2.70111393       0.00000004      -0.00000000       0.00000000
H       26.21238978       1.24181869       0.82005941       0.00000004       0.00000000      -0.00000000
