6

O   3.63802      1.57110      1.76000
O  26.36198      1.57110      1.76000
H   3.95828      2.55412      1.74392
H   2.63613      1.66728      1.76493
H  26.09174      0.99418      2.56104
H  26.09550      0.99080      0.96072
6
Properties=species:S:1:pos:R:3:forces:R:3 energy=-4215.034175799313 pbc="F F F"
O        3.44729623       1.91712016       1.75624988      -0.00000014      -0.00000020       0.00000000
O       26.17809924       1.17460165       1.75590267      -0.00000014      -0.00000030      -0.00000005
H        3.43002416       2.03735540       1.75463837      -0.00000003       0.00000001       0.00000000
H        3.35510961       1.83802443       1.75796175       0.00000018       0.00000019      -0.00000000
H       26.14734178       1.10807697       1.72693915       0.00000013       0.00000028       0.00000007
H       26.22377898       1.27340139       1.79891818       0.00000001       0.00000002      -0.00000003
