6

O   3.63802      1.57110      1.76000
O  26.36198      1.57110      1.76000
H   3.95828      2.55412      1.74392
H   2.63613      1.66728      1.76493
H  26.09174      0.99418      2.56104
H  26.09550      0.99080      0.96072

7

C   3.63802      1.57110      1.76000
C  21.36198      1.57110      1.76000
O   3.95828      2.55412      1.74392
O   2.63613      1.66728      1.76493
O  21.09174      0.99418      2.56104
O  21.09550      0.99080      0.96072
O  21.09174      0.99418      2.56104


10

C   3.63802      1.57110      1.76000
C  21.36198      1.57110      1.76000
H   3.95828      2.55412      1.74392
H   2.63613      1.66728      1.76493
H  21.09174      0.99418      2.56104
H  21.09550      0.99080      0.96072
O  21.09174      0.99418      2.56104
O  21.09550      0.99080      0.96072
O  21.09174      0.99418      2.56104
O  21.09550      0.99080      0.96072


