4

Se   -2.0118679    0.0000000    0.0000000
Se    2.0118679    0.0000000    0.0000000
Cd    0.0000000    1.6205108    0.0000000
Cd    0.0000000   -1.6205108    0.0000000
4

Se   -2.1118679    0.0000000    0.0000000
Se    2.1118679    0.0000000    0.0000000
Cd    0.0000000    1.6205108    0.0000000
Cd    0.0000000   -1.6205108    0.0000000
4

Se   -2.0118679    0.0000000    0.0000000
Se    2.0118679    0.0000000    0.0000000
Cd    0.0000000    1.7205108    0.0000000
Cd    0.0000000   -1.7205108    0.0000000