4

Se   -2.0118679    0.0000000    0.0000000
Se    2.0118679    0.0000000    0.0000000
Cd    0.0000000    1.6205108    0.0000000
Cd    0.0000000   -1.6205108    0.0000000
4

Se   -2.1118679    0.0000000    0.0000000
Se    2.1118679    0.0000000    0.0000000
Cd    0.0000000    1.6205108    0.0000000
Cd    0.0000000   -1.6205108    0.0000000
4

Se   -2.0118679    0.0000000    0.0000000
Se    2.0118679    0.0000000    0.0000000
Cd    0.0000000    1.7205108    0.0000000
Cd    0.0000000   -1.7205108    0.0000000
4
Properties=species:S:1:pos:R:3:forces:R:3 energy=-3125.959413636522 pbc="F F F"
Se      -2.13444547       0.00000000       0.00000000      -0.00014060      -0.00000000       0.00000000
Se       2.13444547       0.00000000       0.00000000       0.00014060      -0.00000000       0.00000000
Cd      -0.00000000       1.67985600       0.00000000      -0.00000000       0.00001083       0.00000000
Cd      -0.00000000      -1.67985600       0.00000000      -0.00000000      -0.00001083       0.00000000
4
Properties=species:S:1:pos:R:3:forces:R:3 energy=-3126.520111467278 pbc="F F F"
Se      -2.33686985      -0.00000000       0.00000000       0.00000669       0.00000000       0.00000000
Se       2.33686985      -0.00000000       0.00000000      -0.00000669      -0.00000000       0.00000000
Cd      -0.00000000       1.36243423       0.00000000      -0.00000000      -0.00003452       0.00000000
Cd      -0.00000000      -1.36243423       0.00000000      -0.00000000       0.00003452       0.00000000
4
Properties=species:S:1:pos:R:3:forces:R:3 energy=-3125.9549263320505 pbc="F F F"
Se      -2.31742123      -0.00000000       0.00000000       0.00001998       0.00000000       0.00000000
Se       2.31742123      -0.00000000       0.00000000      -0.00001998       0.00000000       0.00000000
Cd       0.00000000       1.29484030       0.00000000       0.00000000      -0.00015475       0.00000000
Cd       0.00000000      -1.29484030       0.00000000       0.00000000       0.00015475       0.00000000
4
Properties=species:S:1:pos:R:3:forces:R:3 energy=-3126.774592094839 pbc="F F F"
Se      -2.03589491       0.00000000       0.00000000       0.00003554       0.00000000       0.00000000
Se       2.03589491      -0.00000000       0.00000000      -0.00003554       0.00000000       0.00000000
Cd      -0.00000000       1.79975419       0.00000000      -0.00000000      -0.00000244       0.00000000
Cd      -0.00000000      -1.79975419       0.00000000      -0.00000000       0.00000244       0.00000000
