8

 Cd    1.1593066   -1.1593066    1.1593066
 Se    1.4009367    1.4009367    1.4009367
 Se    1.4009367   -1.4009367   -1.4009367
 Cd    1.1593066    1.1593066   -1.1593066
 Cd   -1.1593066    1.1593066    1.1593066
 Se   -1.4009367    1.4009367   -1.4009367
 Cd   -1.1593066   -1.1593066   -1.1593066
 Se   -1.4009367   -1.4009367    1.4009367
