3

O   3.63802      1.57110      1.76000
H   3.95828      2.55412      1.74392
H   2.63613      1.66728      1.76493
3
Properties=species:S:1:pos:R:3:forces:R:3 energy=-2062.829404632121 pbc="F F F"
O        3.52231549       1.74675417       1.75821515       0.01414761       0.00099011      -0.00010321
H        4.05667279       2.44744993       1.74482685      -0.01485653      -0.00810660       0.00020949
H        2.65344172       1.59829590       1.76580800       0.00070892       0.00711649      -0.00010628
3
Properties=species:S:1:pos:R:3:forces:R:3 energy=-2062.365458705072 pbc="F F F"
O        3.60526917       1.60671419       1.75969660       0.01767816       0.01278427      -0.00029418
H        3.99932549       2.50364441       1.74438382      -0.00407538      -0.01252443       0.00020484
H        2.62783534       1.68214140       1.76476958      -0.01360278      -0.00025984       0.00008934
3
Properties=species:S:1:pos:R:3:forces:R:3 energy=-2062.624662896329 pbc="F F F"
O        3.60620012       1.60484804       1.75971744      -0.00029287       0.00768317      -0.00010808
H        4.00026844       2.50548737       1.74435152       0.00711428      -0.00120159      -0.00002759
H        2.62596144       1.68216458       1.76478104      -0.00682141      -0.00648158       0.00013567
3
Properties=species:S:1:pos:R:3:forces:R:3 energy=-2062.761173282099 pbc="F F F"
O        3.60620012       1.60484804       1.75971744      -0.00351656       0.01305533      -0.00016465
H        4.00026844       2.50548737       1.74435152      -0.00836162      -0.01412331       0.00025469
H        2.62596144       1.68216458       1.76478104       0.01187818       0.00106798      -0.00009004
3
Properties=species:S:1:pos:R:3:forces:R:3 energy=-2062.840286033052 pbc="F F F"
O        3.60630827       1.60448482       1.75972196      -0.00750118       0.00021096       0.00004420
H        4.00037970       2.50580699       1.74434625       0.01314579       0.00814980      -0.00019934
H        2.62574203       1.68220818       1.76478180      -0.00564462      -0.00836075       0.00015515
3
Properties=species:S:1:pos:R:3:forces:R:3 energy=-2062.8940909148323 pbc="F F F"
O        3.60630827       1.60448482       1.75972196      -0.01103444       0.00611874      -0.00001809
H        4.00037970       2.50580699       1.74434625       0.01378782       0.00452005      -0.00015145
H        2.62574203       1.68220818       1.76478180      -0.00275338      -0.01063879       0.00016954
3
Properties=species:S:1:pos:R:3:forces:R:3 energy=-2062.932840397346 pbc="F F F"
O        3.60630827       1.60448482       1.75972196      -0.01499061       0.01275769      -0.00008817
H        4.00037970       2.50580699       1.74434625       0.01390508       0.00007825      -0.00008864
H        2.62574203       1.68220818       1.76478180       0.00108553      -0.01283594       0.00017681
3
Properties=species:S:1:pos:R:3:forces:R:3 energy=-2062.9610535973807 pbc="F F F"
O        3.60713791       1.60336650       1.75973274       0.01302340      -0.00594449       0.00000308
H        3.99918739       2.50584339       1.74435323       0.00257422       0.00503123      -0.00008819
H        2.62610470       1.68329010       1.76476404      -0.01559762       0.00091326       0.00008511
3
Properties=species:S:1:pos:R:3:forces:R:3 energy=-2062.9836503431243 pbc="F F F"
O        3.60713791       1.60336650       1.75973274       0.01176952      -0.00376504      -0.00002021
H        3.99918739       2.50584339       1.74435323       0.00294281       0.00376787      -0.00007243
H        2.62610470       1.68329010       1.76476404      -0.01471233      -0.00000282       0.00009264
3
Properties=species:S:1:pos:R:3:forces:R:3 energy=-2063.001468170443 pbc="F F F"
O        3.60713791       1.60336650       1.75973274       0.00808471       0.00184995      -0.00007735
H        3.99918739       2.50584339       1.74435323       0.00683871       0.00230444      -0.00007601
H        2.62610470       1.68329010       1.76476404      -0.01492343      -0.00415439       0.00015337
3
Properties=species:S:1:pos:R:3:forces:R:3 energy=-2063.016273931177 pbc="F F F"
O        3.60713791       1.60336650       1.75973274       0.00679279       0.00391655      -0.00009879
H        3.99918739       2.50584339       1.74435323       0.00781582       0.00148844      -0.00007049
H        2.62610470       1.68329010       1.76476404      -0.01460861      -0.00540499       0.00016928
3
Properties=species:S:1:pos:R:3:forces:R:3 energy=-2063.029125201749 pbc="F F F"
O        3.60713791       1.60336650       1.75973274       0.00719348       0.00369794      -0.00009818
H        3.99918739       2.50584339       1.74435323       0.00670442       0.00095552      -0.00005587
H        2.62610470       1.68329010       1.76476404      -0.01389790      -0.00465346       0.00015405
3
Properties=species:S:1:pos:R:3:forces:R:3 energy=-2063.0393784495086 pbc="F F F"
O        3.60713791       1.60336650       1.75973274       0.00750241       0.00284972      -0.00008799
H        3.99918739       2.50584339       1.74435323       0.00441918       0.00017459      -0.00003031
H        2.62610470       1.68329010       1.76476404      -0.01192159      -0.00302430       0.00011831
3
Properties=species:S:1:pos:R:3:forces:R:3 energy=-2063.0477220896087 pbc="F F F"
O        3.60713791       1.60336650       1.75973274       0.00455487       0.00791982      -0.00014198
H        3.99918739       2.50584339       1.74435323       0.00880326      -0.00065000      -0.00004611
H        2.62610470       1.68329010       1.76476404      -0.01335813      -0.00726982       0.00018809
3
Properties=species:S:1:pos:R:3:forces:R:3 energy=-2063.05402916386 pbc="F F F"
O        3.60713791       1.60336650       1.75973274       0.00415084       0.00848737      -0.00014756
H        3.99918739       2.50584339       1.74435323       0.01034558      -0.00010804      -0.00006357
H        2.62610470       1.68329010       1.76476404      -0.01449641      -0.00837933       0.00021113
3
Properties=species:S:1:pos:R:3:forces:R:3 energy=-2063.063147058766 pbc="F F F"
O        3.60713791       1.60336650       1.75973274       0.00374105       0.00870220      -0.00014805
H        3.99918739       2.50584339       1.74435323       0.01047895      -0.00015779      -0.00006370
H        2.62610470       1.68329010       1.76476404      -0.01421999      -0.00854441       0.00021175
3
Properties=species:S:1:pos:R:3:forces:R:3 energy=-2063.069073617676 pbc="F F F"
O        3.60713791       1.60336650       1.75973274       0.00199533       0.01171127      -0.00018011
H        3.99918739       2.50584339       1.74435323       0.00970088      -0.00267218      -0.00002283
H        2.62610470       1.68329010       1.76476404      -0.01169621      -0.00903909       0.00020294
3
Properties=species:S:1:pos:R:3:forces:R:3 energy=-2063.0729472317416 pbc="F F F"
O        3.60713791       1.60336650       1.75973274       0.00147084       0.01232467      -0.00018559
H        3.99918739       2.50584339       1.74435323       0.01101071      -0.00229525      -0.00003646
H        2.62610470       1.68329010       1.76476404      -0.01248156      -0.01002942       0.00022205
3
Properties=species:S:1:pos:R:3:forces:R:3 energy=-2063.0753422812413 pbc="F F F"
O        3.60713791       1.60336650       1.75973274       0.00105231       0.01281636      -0.00018999
H        3.99918739       2.50584339       1.74435323       0.01221675      -0.00189970      -0.00004971
H        2.62610470       1.68329010       1.76476404      -0.01326906      -0.01091666       0.00023970
3
Properties=species:S:1:pos:R:3:forces:R:3 energy=-2063.0828090869863 pbc="F F F"
O        3.60713791       1.60336650       1.75973274       0.00083514       0.01363677      -0.00020036
H        3.99918739       2.50584339       1.74435323       0.01128149      -0.00303350      -0.00002761
H        2.62610470       1.68329010       1.76476404      -0.01211663      -0.01060327       0.00022797
3
Properties=species:S:1:pos:R:3:forces:R:3 energy=-2063.0881498392473 pbc="F F F"
O        3.60713791       1.60336650       1.75973274      -0.00095202       0.01575860      -0.00021947
H        3.99918739       2.50584339       1.74435323       0.01306604      -0.00337642      -0.00003393
H        2.62610470       1.68329010       1.76476404      -0.01211402      -0.01238218       0.00025340
3
Properties=species:S:1:pos:R:3:forces:R:3 energy=-2063.0906147738874 pbc="F F F"
O        3.60713791       1.60336650       1.75973274       0.00030391       0.01407548      -0.00020329
H        3.99918739       2.50584339       1.74435323       0.01154030      -0.00316098      -0.00002741
H        2.62610470       1.68329010       1.76476404      -0.01184421      -0.01091450       0.00023070
3
Properties=species:S:1:pos:R:3:forces:R:3 energy=-2063.0937790967073 pbc="F F F"
O        3.60713791       1.60336650       1.75973274      -0.00023767       0.01457847      -0.00020708
H        3.99918739       2.50584339       1.74435323       0.01166118      -0.00341642      -0.00002452
H        2.62610470       1.68329010       1.76476404      -0.01142351      -0.01116205       0.00023160
3
Properties=species:S:1:pos:R:3:forces:R:3 energy=-2063.0975332947146 pbc="F F F"
O        3.60713791       1.60336650       1.75973274      -0.00097988       0.01548350      -0.00021536
H        3.99918739       2.50584339       1.74435323       0.01241299      -0.00356947      -0.00002706
H        2.62610470       1.68329010       1.76476404      -0.01143310      -0.01191404       0.00024242
3
Properties=species:S:1:pos:R:3:forces:R:3 energy=-2063.097103595162 pbc="F F F"
O        3.60713791       1.60336650       1.75973274      -0.00033748       0.01475031      -0.00020891
H        3.99918739       2.50584339       1.74435323       0.01268285      -0.00292135      -0.00003803
H        2.62610470       1.68329010       1.76476404      -0.01234537      -0.01182896       0.00024694
3
Properties=species:S:1:pos:R:3:forces:R:3 energy=-2063.100459945652 pbc="F F F"
O        3.60713791       1.60336650       1.75973274      -0.00222537       0.01648021      -0.00022178
H        3.99918739       2.50584339       1.74435323       0.01284310      -0.00395143      -0.00002430
H        2.62610470       1.68329010       1.76476404      -0.01061774      -0.01252878       0.00024608
3
Properties=species:S:1:pos:R:3:forces:R:3 energy=-2063.104659985989 pbc="F F F"
O        3.60713791       1.60336650       1.75973274      -0.00290464       0.01747067      -0.00023167
H        3.99918739       2.50584339       1.74435323       0.01292119      -0.00457277      -0.00001590
H        2.62610470       1.68329010       1.76476404      -0.01001656      -0.01289790       0.00024758
3
Properties=species:S:1:pos:R:3:forces:R:3 energy=-2063.106066032925 pbc="F F F"
O        3.60713791       1.60336650       1.75973274      -0.00312755       0.01780281      -0.00023502
H        3.99918739       2.50584339       1.74435323       0.01301830      -0.00473892      -0.00001414
H        2.62610470       1.68329010       1.76476404      -0.00989075      -0.01306388       0.00024916
3
Properties=species:S:1:pos:R:3:forces:R:3 energy=-2063.1084609189115 pbc="F F F"
O        3.60713791       1.60336650       1.75973274      -0.00271769       0.01778470      -0.00023734
H        3.99918739       2.50584339       1.74435323       0.01327126      -0.00459831      -0.00001774
H        2.62610470       1.68329010       1.76476404      -0.01055357      -0.01318640       0.00025509
