3

O   3.63802      1.57110      1.76000
H   3.95828      2.55412      1.74392
H   2.63613      1.66728      1.76493
3
Properties=species:S:1:pos:R:3:forces:R:3 energy=-2062.829405472257 pbc="F F F"
O        3.52232048       1.74673630       1.75821537       0.01420847       0.00096464      -0.00010323
H        4.05667547       2.44743881       1.74482699      -0.01488099      -0.00809919       0.00020954
H        2.65343405       1.59832489       1.76580764       0.00067252       0.00713455      -0.00010631
3
Properties=species:S:1:pos:R:3:forces:R:3 energy=-2062.36680790011 pbc="F F F"
O        3.60636983       1.60716092       1.75968327       0.00875308      -0.00338059      -0.00000673
H        3.99692110       2.50561448       1.74437077      -0.01119149      -0.00480667       0.00013921
H        2.62913907       1.67972460       1.76479596       0.00243841       0.00818726      -0.00013248
3
Properties=species:S:1:pos:R:3:forces:R:3 energy=-2062.6247509561013 pbc="F F F"
O        3.60737948       1.60527167       1.75970394      -0.00825026       0.00099683       0.00003767
H        3.99788239       2.50749110       1.74433787       0.00139616       0.00057848      -0.00001706
H        2.62716812       1.67973724       1.76480818       0.00685410      -0.00157531      -0.00002060
3
Properties=species:S:1:pos:R:3:forces:R:3 energy=-2062.7599685372597 pbc="F F F"
O        3.60737948       1.60527167       1.75970394      -0.01508191       0.01233725      -0.00008158
H        3.99788239       2.50749110       1.74433787      -0.00726783      -0.01239208       0.00022304
H        2.62716812       1.67973724       1.76480818       0.02234974       0.00005483      -0.00014146
3
Properties=species:S:1:pos:R:3:forces:R:3 energy=-2062.8402538866767 pbc="F F F"
O        3.60765972       1.60506323       1.75970516       0.00396648       0.00810256      -0.00014089
H        3.99796437       2.50767447       1.74433473       0.00299596      -0.00420326       0.00004128
H        2.62680590       1.67976232       1.76481010      -0.00696244      -0.00389931       0.00009961
3
Properties=species:S:1:pos:R:3:forces:R:3 energy=-2062.893936974614 pbc="F F F"
O        3.60765972       1.60506323       1.75970516      -0.00055258       0.01555393      -0.00021905
H        3.99796437       2.50767447       1.74433473       0.00415420      -0.00858802       0.00009672
H        2.62680590       1.67976232       1.76481010      -0.00360162      -0.00696591       0.00012233
3
Properties=species:S:1:pos:R:3:forces:R:3 energy=-2062.9328384514847 pbc="F F F"
O        3.60765972       1.60506323       1.75970516      -0.00476881       0.02241177      -0.00029063
H        3.99796437       2.50767447       1.74433473       0.00331892      -0.01376841       0.00017610
H        2.62680590       1.67976232       1.76481010       0.00144989      -0.00864336       0.00011454
3
Properties=species:S:1:pos:R:3:forces:R:3 energy=-2062.9613109086026 pbc="F F F"
O        3.60815936       1.60415443       1.75971502       0.00535320      -0.00297522       0.00000887
H        3.99721146       2.50784256       1.74433706       0.00097567       0.00242126      -0.00004078
H        2.62705917       1.68050303       1.76479791      -0.00632887       0.00055396       0.00003191
3
Properties=species:S:1:pos:R:3:forces:R:3 energy=-2062.985525585978 pbc="F F F"
O        3.60815936       1.60415443       1.75971502       0.00530364      -0.00294773       0.00000879
H        3.99721146       2.50784256       1.74433706      -0.00176072       0.00075202       0.00000032
H        2.62705917       1.68050303       1.76479791      -0.00354291       0.00219571      -0.00000911
3
Properties=species:S:1:pos:R:3:forces:R:3 energy=-2063.0016558494385 pbc="F F F"
O        3.60815936       1.60415443       1.75971502       0.00146153       0.00346042      -0.00005871
H        3.99721146       2.50784256       1.74433706       0.00401830      -0.00013291      -0.00002339
H        2.62705917       1.68050303       1.76479791      -0.00547984      -0.00332751       0.00008210
3
Properties=species:S:1:pos:R:3:forces:R:3 energy=-2063.0163376986584 pbc="F F F"
O        3.60815936       1.60415443       1.75971502      -0.00113117       0.00758325      -0.00010137
H        3.99721146       2.50784256       1.74433706       0.00628702      -0.00157068      -0.00001710
H        2.62705917       1.68050303       1.76479791      -0.00515585      -0.00601258       0.00011847
3
Properties=species:S:1:pos:R:3:forces:R:3 energy=-2063.0292243196527 pbc="F F F"
O        3.60815936       1.60415443       1.75971502      -0.00118735       0.00777819      -0.00010381
H        3.99721146       2.50784256       1.74433706       0.00571940      -0.00204987      -0.00000667
H        2.62705917       1.68050303       1.76479791      -0.00453205      -0.00572831       0.00011048
3
Properties=species:S:1:pos:R:3:forces:R:3 energy=-2063.0393306014093 pbc="F F F"
O        3.60815936       1.60415443       1.75971502      -0.00099635       0.00736114      -0.00009905
H        3.99721146       2.50784256       1.74433706       0.00362735      -0.00302513       0.00002045
H        2.62705917       1.68050303       1.76479791      -0.00263100      -0.00433600       0.00007860
3
Properties=species:S:1:pos:R:3:forces:R:3 energy=-2063.0476094899354 pbc="F F F"
O        3.60815936       1.60415443       1.75971502      -0.00435977       0.01291718      -0.00015737
H        3.99721146       2.50784256       1.74433706       0.00872295      -0.00373925      -0.00000141
H        2.62705917       1.68050303       1.76479791      -0.00436318      -0.00917793       0.00015877
3
Properties=species:S:1:pos:R:3:forces:R:3 energy=-2063.053987681854 pbc="F F F"
O        3.60815936       1.60415443       1.75971502      -0.00433816       0.01290580      -0.00015734
H        3.99721146       2.50784256       1.74433706       0.00940476      -0.00332061      -0.00001169
H        2.62705917       1.68050303       1.76479791      -0.00506660      -0.00958519       0.00016903
3
Properties=species:S:1:pos:R:3:forces:R:3 energy=-2063.063148904029 pbc="F F F"
O        3.60815936       1.60415443       1.75971502      -0.00470741       0.01335247      -0.00016141
H        3.99721146       2.50784256       1.74433706       0.00941432      -0.00361410      -0.00000755
H        2.62705917       1.68050303       1.76479791      -0.00470691      -0.00973837       0.00016895
3
Properties=species:S:1:pos:R:3:forces:R:3 energy=-2063.069017948602 pbc="F F F"
O        3.60815936       1.60415443       1.75971502      -0.00648466       0.01630313      -0.00019244
H        3.99721146       2.50784256       1.74433706       0.00920343      -0.00575523       0.00002441
H        2.62705917       1.68050303       1.76479791      -0.00271877      -0.01054790       0.00016802
3
Properties=species:S:1:pos:R:3:forces:R:3 energy=-2063.0729602581278 pbc="F F F"
O        3.60815936       1.60415443       1.75971502      -0.00685137       0.01683612      -0.00019775
H        3.99721146       2.50784256       1.74433706       0.01021704      -0.00550440       0.00001444
H        2.62705917       1.68050303       1.76479791      -0.00336566      -0.01133172       0.00018331
3
Properties=species:S:1:pos:R:3:forces:R:3 energy=-2063.0753472563047 pbc="F F F"
O        3.60815936       1.60415443       1.75971502      -0.00719487       0.01731855      -0.00020249
H        3.99721146       2.50784256       1.74433706       0.01125600      -0.00520335       0.00000360
H        2.62705917       1.68050303       1.76479791      -0.00406113      -0.01211520       0.00019890
3
Properties=species:S:1:pos:R:3:forces:R:3 energy=-2063.082808379916 pbc="F F F"
O        3.60815936       1.60415443       1.75971502      -0.00759214       0.01813434      -0.00021166
H        3.99721146       2.50784256       1.74433706       0.01053494      -0.00620076       0.00002241
H        2.62705917       1.68050303       1.76479791      -0.00294280      -0.01193358       0.00018926
3
Properties=species:S:1:pos:R:3:forces:R:3 energy=-2063.0881412590575 pbc="F F F"
O        3.60815936       1.60415443       1.75971502      -0.00897379       0.02012082      -0.00023139
H        3.99721146       2.50784256       1.74433706       0.01194099      -0.00669717       0.00002066
H        2.62705917       1.68050303       1.76479791      -0.00296720      -0.01342364       0.00021073
3
Properties=species:S:1:pos:R:3:forces:R:3 energy=-2063.09062340146 pbc="F F F"
O        3.60815936       1.60415443       1.75971502      -0.00808103       0.01874873      -0.00021738
H        3.99721146       2.50784256       1.74433706       0.01054311      -0.00660852       0.00002819
H        2.62705917       1.68050303       1.76479791      -0.00246208      -0.01214021       0.00018919
3
Properties=species:S:1:pos:R:3:forces:R:3 energy=-2063.093724734551 pbc="F F F"
O        3.60815936       1.60415443       1.75971502      -0.00834194       0.01907902      -0.00022046
H        3.99721146       2.50784256       1.74433706       0.01092676      -0.00659882       0.00002564
H        2.62705917       1.68050303       1.76479791      -0.00258482      -0.01248020       0.00019483
3
Properties=species:S:1:pos:R:3:forces:R:3 energy=-2063.0975662905134 pbc="F F F"
O        3.60815936       1.60415443       1.75971502      -0.00893947       0.01999311      -0.00022978
H        3.99721146       2.50784256       1.74433706       0.01131214      -0.00698736       0.00002877
H        2.62705917       1.68050303       1.76479791      -0.00237267      -0.01300575       0.00020101
3
Properties=species:S:1:pos:R:3:forces:R:3 energy=-2063.097107749789 pbc="F F F"
O        3.60815936       1.60415443       1.75971502      -0.00863584       0.01945637      -0.00022401
H        3.99721146       2.50784256       1.74433706       0.01175089      -0.00635502       0.00001696
H        2.62705917       1.68050303       1.76479791      -0.00311505      -0.01310135       0.00020705
