6

O   3.63802      1.57110      1.76000
O  26.36198      1.57110      1.76000
H   3.95828      2.55412      1.74392
H   2.63613      1.66728      1.76493
H  26.09174      0.99418      2.56104
H  26.09550      0.99080      0.96072
6
Properties=species:S:1:pos:R:3:forces:R:3 energy=-4125.802566942113 pbc="F F F"
O        3.55070029       1.71871553       1.75843765       0.00526703       0.00245797      -0.00006832
O       26.28975454       1.41538116       1.76110039       0.00306380       0.00660747       0.00021520
H        4.04070232       2.49815774       1.74420188      -0.01032902      -0.00786692       0.00017757
H        2.64102740       1.57562673       1.76621047       0.00506199       0.00540896      -0.00010925
H       26.12672097       1.06987771       2.59928939      -0.00153160      -0.00326546       0.00513523
H       26.13274449       1.07082113       0.92137022      -0.00153220      -0.00334200      -0.00535043
6
Properties=species:S:1:pos:R:3:forces:R:3 energy=-4125.5274705065185 pbc="F F F"
O        3.61427716       1.62171927       1.75942523      -0.00790411       0.00105633       0.00003464
O       26.33896541       1.52148760       1.76136445      -0.00021402      -0.00043590       0.00356068
H        3.98730601       2.53188055       1.74405549       0.00776913       0.00444883      -0.00011255
H        2.63084684       1.63890018       1.76536928       0.00013498      -0.00550516       0.00007791
H       26.10222210       1.01685785       2.57179476       0.00062719       0.00132534      -0.00375654
H       26.10803249       1.01773455       0.94860080      -0.00041317      -0.00088944       0.00019586
6
Properties=species:S:1:pos:R:3:forces:R:3 energy=-4125.776085003839 pbc="F F F"
O        3.62046014       1.61244803       1.75951896       0.00124424      -0.00075782       0.00000301
O       26.34346674       1.53119287       1.76134582       0.00009737       0.00020617      -0.00052591
H        3.97408071       2.52982934       1.74416808      -0.00079270       0.00000026       0.00000499
H        2.63788916       1.65022264       1.76516296      -0.00045154       0.00075756      -0.00000800
H       26.10000976       1.01200389       2.56010827      -0.00012313      -0.00027304      -0.00105207
H       26.10574350       1.01288324       0.96030592       0.00002576       0.00006687       0.00157798
6
Properties=species:S:1:pos:R:3:forces:R:3 energy=-4125.914286885296 pbc="F F F"
O        3.62026325       1.61292621       1.75951336       0.01192640       0.00214210      -0.00010571
O       26.34325744       1.53074099       1.76126137       0.00208515       0.00442819      -0.00942366
H        3.97540625       2.53035583       1.74415220      -0.00195979      -0.00318712       0.00005793
H        2.63676051       1.64921797       1.76518444      -0.00996661       0.00104503       0.00004778
H       26.10009658       1.01220194       2.56162131      -0.00246470      -0.00526430       0.00694915
H       26.10586598       1.01313708       0.95887733       0.00037955       0.00083611       0.00247451
6
Properties=species:S:1:pos:R:3:forces:R:3 energy=-4125.996550091737 pbc="F F F"
O        3.62026325       1.61292621       1.75951336       0.00469644       0.01263320      -0.00021031
O       26.34325744       1.53074099       1.76126137      -0.00327542      -0.00712839      -0.00922152
H        3.97540625       2.53035583       1.74415220       0.00780506      -0.00427140       0.00001199
H        2.63676051       1.64921797       1.76518444      -0.01250150      -0.00836180       0.00019832
H       26.10009658       1.01220194       2.56162131       0.00022255       0.00058229       0.01427224
H       26.10586598       1.01313708       0.95887733       0.00305287       0.00654610      -0.00505072
6
Properties=species:S:1:pos:R:3:forces:R:3 energy=-4126.0517119105225 pbc="F F F"
O        3.62026325       1.61292621       1.75951336       0.00144652       0.01767722      -0.00026202
O       26.34325744       1.53074099       1.76126137      -0.00579969      -0.01257147      -0.00928401
H        3.97540625       2.53035583       1.74415220       0.00831331      -0.00755458       0.00005576
H        2.63676051       1.64921797       1.76518444      -0.00975983      -0.01012263       0.00020626
H       26.10009658       1.01220194       2.56162131       0.00148177       0.00328786       0.01295305
H       26.10586598       1.01313708       0.95887733       0.00431792       0.00928361      -0.00366904
6
Properties=species:S:1:pos:R:3:forces:R:3 energy=-4126.091307296704 pbc="F F F"
O        3.62079911       1.61171435       1.75952733      -0.00930606      -0.00733320       0.00016349
O       26.34380587       1.53192482       1.76144933       0.00038913       0.00091077       0.00999554
H        3.97413274       2.53039420       1.74415967       0.00293101       0.00759368      -0.00012709
H        2.63749816       1.65039146       1.76516301       0.00637505      -0.00026048      -0.00003640
H       26.09985459       1.01167123       2.56037483       0.00130830       0.00279021      -0.00426731
H       26.10555954       1.01248396       0.95993584      -0.00169743      -0.00370098      -0.00572824
6
Properties=species:S:1:pos:R:3:forces:R:3 energy=-4126.121388663575 pbc="F F F"
O        3.62079911       1.61171435       1.75952733      -0.01066816      -0.00494928       0.00013796
O       26.34380587       1.53192482       1.76144933      -0.00076321      -0.00157491       0.00984340
H        3.97413274       2.53039420       1.74415967       0.00312202       0.00600511      -0.00010557
H        2.63749816       1.65039146       1.76516301       0.00754614      -0.00105582      -0.00003239
H       26.09985459       1.01167123       2.56037483       0.00186472       0.00398596      -0.00481864
H       26.10555954       1.01248396       0.95993584      -0.00110151      -0.00241105      -0.00502476
6
Properties=species:S:1:pos:R:3:forces:R:3 energy=-4126.137097744631 pbc="F F F"
O        3.62079911       1.61171435       1.75952733      -0.01196610      -0.00261457       0.00011272
O       26.34380587       1.53192482       1.76144933      -0.00188340      -0.00399144       0.00966883
H        3.97413274       2.53039420       1.74415967       0.00329469       0.00443881      -0.00008424
H        2.63749816       1.65039146       1.76516301       0.00867141      -0.00182423      -0.00002848
H       26.09985459       1.01167123       2.56037483       0.00240162       0.00513979      -0.00534875
H       26.10555954       1.01248396       0.95993584      -0.00051822      -0.00114835      -0.00432008
6
Properties=species:S:1:pos:R:3:forces:R:3 energy=-4126.158043282733 pbc="F F F"
O        3.62079911       1.61171435       1.75952733      -0.01328641      -0.00026506       0.00008742
O       26.34380587       1.53192482       1.76144933      -0.00301404      -0.00643041       0.00950312
H        3.97413274       2.53039420       1.74415967       0.00491769       0.00381712      -0.00008556
H        2.63749816       1.65039146       1.76516301       0.00836873      -0.00355206      -0.00000185
H       26.09985459       1.01167123       2.56037483       0.00293894       0.00630686      -0.00415769
H       26.10555954       1.01248396       0.95993584       0.00007510       0.00012355      -0.00534544
6
Properties=species:S:1:pos:R:3:forces:R:3 energy=-4126.170562515619 pbc="F F F"
O        3.62079911       1.61171435       1.75952733      -0.01323059       0.00008658       0.00008204
O       26.34380587       1.53192482       1.76144933      -0.00312395      -0.00666887       0.00929942
H        3.97413274       2.53039420       1.74415967       0.00550703       0.00394482      -0.00009110
H        2.63749816       1.65039146       1.76516301       0.00772356      -0.00403141       0.00000906
H       26.09985459       1.01167123       2.56037483       0.00296087       0.00635977      -0.00337342
H       26.10555954       1.01248396       0.95993584       0.00016309       0.00030910      -0.00592600
6
Properties=species:S:1:pos:R:3:forces:R:3 energy=-4126.188225480813 pbc="F F F"
O        3.62079911       1.61171435       1.75952733      -0.01373768       0.00253592       0.00005019
O       26.34380587       1.53192482       1.76144933      -0.00409929      -0.00877746       0.00851300
H        3.97413274       2.53039420       1.74415967       0.00668432       0.00293272      -0.00008403
H        2.63749816       1.65039146       1.76516301       0.00705336      -0.00546865       0.00003385
H       26.09985459       1.01167123       2.56037483       0.00332769       0.00715988      -0.00209232
H       26.10555954       1.01248396       0.95993584       0.00077160       0.00161758      -0.00642068
6
Properties=species:S:1:pos:R:3:forces:R:3 energy=-4126.198412302321 pbc="F F F"
O        3.62079911       1.61171435       1.75952733      -0.01565183       0.00620442       0.00000975
O       26.34380587       1.53192482       1.76144933      -0.00583017      -0.01251204       0.00815024
H        3.97413274       2.53039420       1.74415967       0.00884650       0.00171288      -0.00008019
H        2.63749816       1.65039146       1.76516301       0.00680533      -0.00791731       0.00007044
H       26.09985459       1.01167123       2.56037483       0.00413509       0.00891168      -0.00056680
H       26.10555954       1.01248396       0.95993584       0.00169508       0.00360036      -0.00758344
6
Properties=species:S:1:pos:R:3:forces:R:3 energy=-4126.20719445449 pbc="F F F"
O        3.62079911       1.61171435       1.75952733      -0.01474265       0.00458468       0.00002720
O       26.34380587       1.53192482       1.76144933      -0.00505094      -0.01083111       0.00826520
H        3.97413274       2.53039420       1.74415967       0.00794383       0.00228385      -0.00008268
H        2.63749816       1.65039146       1.76516301       0.00679882      -0.00686853       0.00005548
H       26.09985459       1.01167123       2.56037483       0.00376397       0.00810745      -0.00112977
H       26.10555954       1.01248396       0.95993584       0.00128698       0.00272366      -0.00713544
6
Properties=species:S:1:pos:R:3:forces:R:3 energy=-4126.215941993038 pbc="F F F"
O        3.62079911       1.61171435       1.75952733      -0.01503850       0.00537501       0.00001775
O       26.34380587       1.53192482       1.76144933      -0.00539659      -0.01157751       0.00810479
H        3.97413274       2.53039420       1.74415967       0.00817268       0.00186167      -0.00007808
H        2.63749816       1.65039146       1.76516301       0.00686582      -0.00723668       0.00006032
H       26.09985459       1.01167123       2.56037483       0.00391271       0.00842913      -0.00099699
H       26.10555954       1.01248396       0.95993584       0.00148387       0.00314839      -0.00710780
6
Properties=species:S:1:pos:R:3:forces:R:3 energy=-4126.221492493457 pbc="F F F"
O        3.62079911       1.61171435       1.75952733      -0.01452129       0.00559868       0.00001130
O       26.34380587       1.53192482       1.76144933      -0.00535385      -0.01148874       0.00763518
H        3.97413274       2.53039420       1.74415967       0.00753631       0.00126319      -0.00006551
H        2.63749816       1.65039146       1.76516301       0.00698498      -0.00686187       0.00005421
H       26.09985459       1.01167123       2.56037483       0.00382265       0.00823243      -0.00134569
H       26.10555954       1.01248396       0.95993584       0.00153120       0.00325632      -0.00628949
6
Properties=species:S:1:pos:R:3:forces:R:3 energy=-4126.226060370363 pbc="F F F"
O        3.62079911       1.61171435       1.75952733      -0.01450509       0.00493082       0.00002075
O       26.34380587       1.53192482       1.76144933      -0.00511649      -0.01097481       0.00793577
H        3.97413274       2.53039420       1.74415967       0.01126752       0.00421056      -0.00013116
H        2.63749816       1.65039146       1.76516301       0.00323757      -0.00914138       0.00011041
H       26.09985459       1.01167123       2.56037483       0.00373280       0.00807037       0.00306481
H       26.10555954       1.01248396       0.95993584       0.00138369       0.00290444      -0.01100059
6
Properties=species:S:1:pos:R:3:forces:R:3 energy=-4126.23522564118 pbc="F F F"
O        3.62079911       1.61171435       1.75952733      -0.01548914       0.00756416      -0.00001073
O       26.34380587       1.53192482       1.76144933      -0.00626771      -0.01346081       0.00740008
H        3.97413274       2.53039420       1.74415967       0.00989774       0.00139998      -0.00008233
H        2.63749816       1.65039146       1.76516301       0.00559140      -0.00896415       0.00009306
H       26.09985459       1.01167123       2.56037483       0.00423711       0.00914258       0.00095559
H       26.10555954       1.01248396       0.95993584       0.00203059       0.00431822      -0.00835568
